/*--------------------------------*- C++ -*----------------------------------*\
  =========                 |
  \\      /  F ield         | OpenFOAM: The Open Source CFD Toolbox
   \\    /   O peration     | Website:  https://openfoam.org
    \\  /    A nd           | Version:  6
     \\/     M anipulation  |
\*---------------------------------------------------------------------------*/
FoamFile
{
    version     2.0;
    format      ascii;
    class       volScalarField;
    location    "0/gas";
    object      fai_s;
}
// * * * * * * * * * * * * * * * * * * * * * * * * * * * * * * * * * * * * * //

dimensions      [ 0 0 0 0 0 0 0 ];

internalField   uniform   0.235;// 0.2351

boundaryField
{
    #includeEtc "caseDicts/setConstraintTypes"

    frontAndBack
    {
        type            empty;
    }

    topAndBottom
    {
        type            empty;
    }

    WE_CC
    {
        type            fixedGradient;
        gradient        uniform 0;
    }

    WE_to_sep
    {
        type            zeroGradient; 
    }

}


// ************************************************************************* //
