/*--------------------------------*- C++ -*----------------------------------*\
  =========                 |
  \\      /  F ield         | OpenFOAM: The Open Source CFD Toolbox
   \\    /   O peration     | Website:  https://openfoam.org
    \\  /    A nd           | Version:  6
     \\/     M anipulation  |
\*---------------------------------------------------------------------------*/
FoamFile
{
    version     2.0;
    format      ascii;
    class       polyBoundaryMesh;
    location    "constant/sep/polyMesh";
    object      boundary;
}
// * * * * * * * * * * * * * * * * * * * * * * * * * * * * * * * * * * * * * //

4
(
    sep_RE
    {
        type            patch;
        nFaces          1;
        startFace       9;
    }
    frontAndBack
    {
        type            empty;
        inGroups        1(empty);
        nFaces          20;
        startFace       10;
    }
    topAndBottom
    {
        type            empty;
        inGroups        1(empty);
        nFaces          20;
        startFace       30;
    }
    sep_to_WE
    {
        type            mappedWall;
        inGroups        1(wall);
        nFaces          1;
        startFace       50;
        sampleMode      nearestPatchFace;
        sampleRegion    WE;
        samplePatch     WE_to_sep;
    }
)

// ************************************************************************* //
