/*--------------------------------*- C++ -*----------------------------------*\
  =========                 |
  \\      /  F ield         | OpenFOAM: The Open Source CFD Toolbox
   \\    /   O peration     | Website:  https://openfoam.org
    \\  /    A nd           | Version:  6
     \\/     M anipulation  |
\*---------------------------------------------------------------------------*/
FoamFile
{
    version     2.0;
    format      ascii;
    class       volScalarField;
    location    "0/gas";
    object      fai_s;
}
// * * * * * * * * * * * * * * * * * * * * * * * * * * * * * * * * * * * * * //

dimensions      [ 0 0 0 0 0 0 0 ];

internalField   uniform   0;//0.075

boundaryField
{
    #includeEtc "caseDicts/setConstraintTypes"

      anodeCC
    {
        type            fixedValue;
        value           uniform 0;

        //type            fixedGradient;
        //gradient           uniform 0;
    }
    frontAndBack
    {
        type            empty;
    }
    topAndBottom
    {
        type            empty;
    }
    anode_to_seperator
    {
        type            zeroGradient; 
    }

}


// ************************************************************************* //
