/*--------------------------------*- C++ -*----------------------------------*\
  =========                 |
  \\      /  F ield         | OpenFOAM: The Open Source CFD Toolbox
   \\    /   O peration     | Website:  https://openfoam.org
    \\  /    A nd           | Version:  8
     \\/     M anipulation  |
\*---------------------------------------------------------------------------*/
FoamFile
{
    version     2.0;
    format      ascii;
    class       polyBoundaryMesh;
    location    "constant/cathode/polyMesh";
    object      boundary;
}
// * * * * * * * * * * * * * * * * * * * * * * * * * * * * * * * * * * * * * //

4
(
    cathodeCC
    {
        type            patch;
        nFaces          1;
        startFace       79;
    }
    frontAndBack
    {
        type            empty;
        inGroups        List<word> 1(empty);
        nFaces          160;
        startFace       80;
    }
    topAndBottom
    {
        type            empty;
        inGroups        List<word> 1(empty);
        nFaces          160;
        startFace       240;
    }
    cathode_to_seperator
    {
        type            mappedWall;
        inGroups        List<word> 1(wall);
        nFaces          1;
        startFace       400;
        sampleMode      nearestPatchFace;
        sampleRegion    seperator;
        samplePatch     seperator_to_cathode;
    }
)

// ************************************************************************* //
