/*--------------------------------*- C++ -*----------------------------------*\
  =========                 |
  \\      /  F ield         | OpenFOAM: The Open Source CFD Toolbox
   \\    /   O peration     | Website:  https://openfoam.org
    \\  /    A nd           | Version:  6
     \\/     M anipulation  |
\*---------------------------------------------------------------------------*/
FoamFile
{
    version     2.0;
    format      ascii;
    class       volScalarField;
    location    "0/gas";
    object      Ce;
}
// * * * * * * * * * * * * * * * * * * * * * * * * * * * * * * * * * * * * * //

dimensions      [ 0 0 0 0 0 0 0 ];

internalField   uniform   1000;

boundaryField
{
    #includeEtc "caseDicts/setConstraintTypes"

    frontAndBack
    {
        type            empty;
    }

    topAndBottom
    {
        type            empty;
    }

    sep_RE
    {
        //type            zeroGradient;
        type            fixedGradient;
        gradient        uniform 0;
    }

    sep_to_WE
    {
        type            compressible::turbulentTemperatureCoupledBaffleMixed;
        value           $internalField;
        Tnbr            Ce;
        kappaMethod     lookup;
        kappa           D_Ce; 
    }

}


// ************************************************************************* //
