/*--------------------------------*- C++ -*----------------------------------*\
  =========                 |
  \\      /  F ield         | OpenFOAM: The Open Source CFD Toolbox
   \\    /   O peration     | Website:  https://openfoam.org
    \\  /    A nd           | Version:  8
     \\/     M anipulation  |
\*---------------------------------------------------------------------------*/
FoamFile
{
    version     2.0;
    format      ascii;
    class       polyBoundaryMesh;
    location    "constant/polyMesh";
    object      boundary;
}
// * * * * * * * * * * * * * * * * * * * * * * * * * * * * * * * * * * * * * //

4
(
    anodeCC
    {
        type            patch;
        nFaces          1;
        startFace       192;
    }
    cathodeCC
    {
        type            patch;
        nFaces          1;
        startFace       193;
    }
    frontAndBack
    {
        type            empty;
        inGroups        List<word> 1(empty);
        nFaces          386;
        startFace       194;
    }
    topAndBottom
    {
        type            empty;
        inGroups        List<word> 1(empty);
        nFaces          386;
        startFace       580;
    }
)

// ************************************************************************* //
