/*--------------------------------*- C++ -*----------------------------------*\
  =========                 |
  \\      /  F ield         | OpenFOAM: The Open Source CFD Toolbox
   \\    /   O peration     | Website:  https://openfoam.org
    \\  /    A nd           | Version:  8
     \\/     M anipulation  |
\*---------------------------------------------------------------------------*/
FoamFile
{
    version     2.0;
    format      ascii;
    class       polyBoundaryMesh;
    location    "constant/anode/polyMesh";
    object      boundary;
}
// * * * * * * * * * * * * * * * * * * * * * * * * * * * * * * * * * * * * * //

4
(
    anodeCC
    {
        type            patch;
        nFaces          1;
        startFace       87;
    }
    frontAndBack
    {
        type            empty;
        inGroups        List<word> 1(empty);
        nFaces          176;
        startFace       88;
    }
    topAndBottom
    {
        type            empty;
        inGroups        List<word> 1(empty);
        nFaces          176;
        startFace       264;
    }
    anode_to_seperator
    {
        type            mappedWall;
        inGroups        List<word> 1(wall);
        nFaces          1;
        startFace       440;
        sampleMode      nearestPatchFace;
        sampleRegion    seperator;
        samplePatch     seperator_to_anode;
    }
)

// ************************************************************************* //
