/*--------------------------------*- C++ -*----------------------------------*\
  =========                 |
  \\      /  F ield         | OpenFOAM: The Open Source CFD Toolbox
   \\    /   O peration     | Website:  https://openfoam.org
    \\  /    A nd           | Version:  6
     \\/     M anipulation  |
\*---------------------------------------------------------------------------*/
FoamFile
{
    version     2.0;
    format      ascii;
    class       dictionary;
    object      blockMeshDict;
}
// * * * * * * * * * * * * * * * * * * * * * * * * * * * * * * * * * * * * * //

convertToMeters 1e-6;//microns

vertices
(
    (-10 -10  -10)//anode_left
    (-10  10  -10)
    (-10  10   10)
    (-10 -10   10)

    (10 -10  -10)//anode_right
    (10  10  -10)
    (10  10   10)
    (10 -10   10)
);

blocks
(
    hex (0 4 5 1 3 7 6 2) (40 40 40) simpleGrading (1 1 1)//anode,0.5um/mesh
);

edges
(
);

boundary
(
    walls
    {
        type patch;
        faces
        (
            (0 3 2 1)
            (4 5 6 7)
            (0 4 7 3)
            (1 2 6 5)
            (3 7 6 2)
            (0 1 5 4)
        );
    }

);

mergePatchPairs
(
);

// ************************************************************************* //
