/*--------------------------------*- C++ -*----------------------------------*\
  =========                 |
  \\      /  F ield         | OpenFOAM: The Open Source CFD Toolbox
   \\    /   O peration     | Website:  https://openfoam.org
    \\  /    A nd           | Version:  6
     \\/     M anipulation  |
\*---------------------------------------------------------------------------*/
FoamFile
{
    version     2.0;
    format      ascii;
    class       dictionary;
    location    "system";
    object      decomposeParDict;
}
// * * * * * * * * * * * * * * * * * * * * * * * * * * * * * * * * * * * * * //

numberOfSubdomains 2;


//preservePatches (anode_AM_to_anode_e anode_e_to_anode_AM);


method          simple;
//method          metis;
//method          manual;

simpleCoeffs
{
    n               (2 1 1);
    delta           0.001;
}

metisCoeffs
{
    processorWeights
    (
        1
        1
    );
}

hierarchicalCoeffs
{
    n               (4 1 1);
    delta           0.001;
    order           xyz;
}

manualCoeffs
{
    dataFile        "cellDist";
}



// ************************************************************************* //
