/*--------------------------------*- C++ -*----------------------------------*\
  =========                 |
  \\      /  F ield         | OpenFOAM: The Open Source CFD Toolbox
   \\    /   O peration     | Website:  https://openfoam.org
    \\  /    A nd           | Version:  8
     \\/     M anipulation  |
\*---------------------------------------------------------------------------*/
FoamFile
{
    version     2.0;
    format      ascii;
    class       polyBoundaryMesh;
    location    "constant/solidPhase/polyMesh";
    object      boundary;
}
// * * * * * * * * * * * * * * * * * * * * * * * * * * * * * * * * * * * * * //

1
(
    solidPhase_to_ele
    {
        type            mappedWall;
        inGroups        List<word> 1(wall);
        nFaces          2688;
        startFace       20280;
        sampleMode      nearestPatchFace;
        sampleRegion    ele;
        samplePatch     ele_to_solidPhase;
    }
)

// ************************************************************************* //
