/*--------------------------------*- C++ -*----------------------------------*\
  =========                 |
  \\      /  F ield         | OpenFOAM: The Open Source CFD Toolbox
   \\    /   O peration     | Website:  https://openfoam.org
    \\  /    A nd           | Version:  8
     \\/     M anipulation  |
\*---------------------------------------------------------------------------*/
FoamFile
{
    version     2.0;
    format      ascii;
    class       polyBoundaryMesh;
    location    "constant/seperator/polyMesh";
    object      boundary;
}
// * * * * * * * * * * * * * * * * * * * * * * * * * * * * * * * * * * * * * //

4
(
    frontAndBack
    {
        type            empty;
        inGroups        List<word> 1(empty);
        nFaces          50;
        startFace       24;
    }
    topAndBottom
    {
        type            empty;
        inGroups        List<word> 1(empty);
        nFaces          50;
        startFace       74;
    }
    seperator_to_anode
    {
        type            mappedWall;
        inGroups        List<word> 1(wall);
        nFaces          1;
        startFace       124;
        sampleMode      nearestPatchFace;
        sampleRegion    anode;
        samplePatch     anode_to_seperator;
    }
    seperator_to_cathode
    {
        type            mappedWall;
        inGroups        List<word> 1(wall);
        nFaces          1;
        startFace       125;
        sampleMode      nearestPatchFace;
        sampleRegion    cathode;
        samplePatch     cathode_to_seperator;
    }
)

// ************************************************************************* //
