/*--------------------------------*- C++ -*----------------------------------*\
  =========                 |
  \\      /  F ield         | OpenFOAM: The Open Source CFD Toolbox
   \\    /   O peration     | Website:  https://openfoam.org
    \\  /    A nd           | Version:  6
     \\/     M anipulation  |
\*---------------------------------------------------------------------------*/
FoamFile
{
    version     2.0;
    format      ascii;
    class       dictionary;
    object      fvSolution;
}
// * * * * * * * * * * * * * * * * * * * * * * * * * * * * * * * * * * * * * //
solvers
{

    Cs
    {
        solver          PBiCGStab;
        preconditioner  DIC;
        tolerance       1e-6;
        relTol          0;

    }
    CsFinal
    {
        $Cs;
        relTol          0;
    }


}

PIMPLE
{
    momentumPredictor   off;
    nOuterCorrectors    1;
    nCorrectors         1;
    nNonOrthogonalCorrectors 0;
    pRefCell            0;
    pRefValue           0;
    turbOnFinalIterOnly no;

    outerCorrectorResidualControl
    {

       "(Cs)"
       {
          relTol 0;
          tolerance 1e-6; 
       } 

    }


}

relaxationFactors
{
    equations
    {
        ".*"   0.99;



    }
}

// ************************************************************************* //
