/*--------------------------------*- C++ -*----------------------------------*\
  =========                 |
  \\      /  F ield         | OpenFOAM: The Open Source CFD Toolbox
   \\    /   O peration     | Website:  https://openfoam.org
    \\  /    A nd           | Version:  6
     \\/     M anipulation  |
\*---------------------------------------------------------------------------*/
FoamFile
{
    version     2.0;
    format      ascii;
    class       dictionary;
    object      blockMeshDict;
}
// * * * * * * * * * * * * * * * * * * * * * * * * * * * * * * * * * * * * * //

convertToMeters 1e-6;//microns

vertices
(
    (0 0 0)//intface of WE/CC node1
    (0 30 0)//WC node2
    (0 30 10)//WC node3
    (0 0 10)//WC node4

    (45 0 0)//intface of SiC/sep node1
    (45 30 0)//SS node2
    (45 30 10)//SS node3
    (45 0 10)//SS node4

    (70 0 0)//intface of sep/RE node1
    (70 30 0)//SR node2
    (70 30 10)//SR node3
    (70 0 10)//SR node4


);

blocks
(
    hex (0 4 5 1 3 7 6 2) (18 1 1) simpleGrading (1 1 1)//anode,45 microns
    hex (4 8 9 5 7 11 10 6) (10 1 1) simpleGrading (1 1 1)//separator,25 microns
);

edges
(
);

boundary
(
    WE_CC //intface between working electrode and CC
    {
        type patch;
        faces
        (
            (0 3 2 1)
        );
    }

    sep_RE //intface between seperator and reference electrode
    {
        type patch;
        faces
        (
            (8 9 10 11)
        );
    }

    frontAndBack//y axis
    {
        type empty;
        faces
        (
            (0 4 7 3)
            (4 8 11 7)

            (1 2 6 5)
            (5 6 10 9)

        );
    }
    topAndBottom//z axis
    {
        type empty;//patch
        faces
        (
            (0 1 5 4)
            (4 5 9 8)

            (3 7 6 2)
            (7 11 10 6)

        );
    }
);

mergePatchPairs
(
);

// ************************************************************************* //
