/*--------------------------------*- C++ -*----------------------------------*\
  =========                 |
  \\      /  F ield         | OpenFOAM: The Open Source CFD Toolbox
   \\    /   O peration     | Website:  https://openfoam.org
    \\  /    A nd           | Version:  6
     \\/     M anipulation  |
\*---------------------------------------------------------------------------*/
FoamFile
{
    version     2.0;
    format      ascii;
    class       dictionary;
    object      topoSetDict;
}

// * * * * * * * * * * * * * * * * * * * * * * * * * * * * * * * * * * * * * //

actions
(

// cell Zones
    // WE
    {
        name    WECellSet;
        type    cellSet;
        action  new;
        source  boxToCell;
        sourceInfo
        {
            box (0    0   0 )(45e-6   30e-6  10e-6);//WE
        }
    }

    {
        name    WE;
        type    cellZoneSet;
        action  new;
        source  setToCellZone;
        sourceInfo
        {
            set WECellSet;
        }
    }

    // separator
    {
        name    sepCellSet;
        type    cellSet;
        action  new;
        source  boxToCell;
        sourceInfo
        {
            box (45e-6    0   0 )(70e-6   30e-6  10e-6);//separator
        }
    }

    {
        name    sep;
        type    cellZoneSet;
        action  new;
        source  setToCellZone;
        sourceInfo
        {
            set sepCellSet;
        }
    }


);
