/*--------------------------------*- C++ -*----------------------------------*\
  =========                 |
  \\      /  F ield         | OpenFOAM: The Open Source CFD Toolbox
   \\    /   O peration     | Website:  https://openfoam.org
    \\  /    A nd           | Version:  6
     \\/     M anipulation  |
\*---------------------------------------------------------------------------*/
FoamFile
{
    version     2.0;
    format      ascii;
    class       polyBoundaryMesh;
    location    "constant/polyMesh";
    object      boundary;
}
// * * * * * * * * * * * * * * * * * * * * * * * * * * * * * * * * * * * * * //

4
(
    WE_CC
    {
        type            patch;
        nFaces          1;
        startFace       27;
    }
    sep_RE
    {
        type            patch;
        nFaces          1;
        startFace       28;
    }
    frontAndBack
    {
        type            empty;
        inGroups        1(empty);
        nFaces          56;
        startFace       29;
    }
    topAndBottom
    {
        type            empty;
        inGroups        1(empty);
        nFaces          56;
        startFace       85;
    }
)

// ************************************************************************* //
