/*--------------------------------*- C++ -*----------------------------------*\
  =========                 |
  \\      /  F ield         | OpenFOAM: The Open Source CFD Toolbox
   \\    /   O peration     | Website:  https://openfoam.org
    \\  /    A nd           | Version:  6
     \\/     M anipulation  |
\*---------------------------------------------------------------------------*/
FoamFile
{
    version     2.0;
    format      ascii;
    class       dictionary;
    object      fvSolution;
}
// * * * * * * * * * * * * * * * * * * * * * * * * * * * * * * * * * * * * * //
solvers
{
    fai_s
    {
        solver          PBiCGStab;
        preconditioner  DIC;
        tolerance       1e-9;
        relTol          0;

    }
    fai_sFinal
    {
        $fai_s;
        relTol          0;
    }

    fai_e
    {
        solver          PBiCGStab;
        preconditioner  DIC;
        tolerance       1e-9;
        relTol          0;

    }
    fai_eFinal
    {
        $fai_e;
        relTol          0;
    }

    Ce
    {
        solver          PBiCGStab;
        preconditioner  DIC;
        tolerance       1e-9;
        relTol          0;

    }
    CeFinal
    {
        $Ce;
        relTol          0;
    }

    T_temp
    {
        solver          PBiCGStab;
        preconditioner  DIC;
        tolerance       1e-9;
        relTol          0;

    }
    T_tempFinal
    {
        $T_temp;
        relTol          0;
    }

    Cs
    {
        solver          PBiCGStab;
        preconditioner  DIC;
        tolerance       1e-9;
        relTol          0;

    }
    CsFinal
    {
        $Cs;
        relTol          0;
    }
    G
    {
        solver          PBiCGStab;
        preconditioner  DIC;
        tolerance       1e-9;
        relTol          0;

    }
    GFinal
    {
        $G;
        relTol          0;
    }


}

PIMPLE
{
    momentumPredictor   off;
    nOuterCorrectors    100;
    nCorrectors         1;
    nNonOrthogonalCorrectors 0;
    pRefCell            0;
    pRefValue           0;
    turbOnFinalIterOnly no;

    outerCorrectorResidualControl
    {

       "(fai_s|fai_e|Ce|Cs|G|T_temp)"
       {
          relTol 0;
          tolerance 1e-9; 
       } 

    }


}

relaxationFactors
{
    equations
    {
        ".*"   0.99;



    }
}

// ************************************************************************* //
