/*--------------------------------*- C++ -*----------------------------------*\
  =========                 |
  \\      /  F ield         | OpenFOAM: The Open Source CFD Toolbox
   \\    /   O peration     | Website:  https://openfoam.org
    \\  /    A nd           | Version:  8
     \\/     M anipulation  |
\*---------------------------------------------------------------------------*/
FoamFile
{
    version     2.0;
    format      ascii;
    class       polyBoundaryMesh;
    location    "constant/ele/polyMesh";
    object      boundary;
}
// * * * * * * * * * * * * * * * * * * * * * * * * * * * * * * * * * * * * * //

2
(
    walls
    {
        type            patch;
        nFaces          9600;
        startFace       164232;
    }
    ele_to_solidPhase
    {
        type            mappedWall;
        inGroups        List<word> 1(wall);
        nFaces          2688;
        startFace       173832;
        sampleMode      nearestPatchFace;
        sampleRegion    solidPhase;
        samplePatch     solidPhase_to_ele;
    }
)

// ************************************************************************* //
